xflr5 v6.10.03

Wing name :        wing022
Wing polar name :  T1-40.0 m/s-VLM1
Freestream speed :  40.000 m/s


   alpha      CL          CDi        CDv        CD         CY         Cl         Cm         Cn        Cni       QInf        XCP
   -1.500   0.235412   0.002879   0.017456   0.020335   0.000000   0.000000   0.139715   0.000000  -0.000000   40.0000    -0.2256
   -1.000   0.276693   0.003184   0.016031   0.019215  -0.000000   0.000000   0.161994   0.000000  -0.000000   40.0000    -0.2203
   -0.500   0.317941   0.003592   0.014424   0.018016   0.000000   0.000000   0.184239   0.000000  -0.000000   40.0000    -0.2163
    0.000   0.359147   0.004102   0.012756   0.016859  -0.000000   0.000000   0.206437   0.000000  -0.000000   40.0000    -0.2133
    0.500   0.400304   0.004714   0.011690   0.016404  -0.000000   0.000000   0.228575   0.000000  -0.000000   40.0000    -0.2109
    1.000   0.441401   0.005427   0.011104   0.016531  -0.000000   0.000000   0.250660   0.000000   0.000000   40.0000    -0.2090
    1.500   0.482432   0.006241   0.010812   0.017053  -0.000000   0.000000   0.272696   0.000000   0.000000   40.0000    -0.2074


